version 2
1
1
.ac dec 100 10Meg 100Meg{return}.kicad adjustpaths{return}.save all{return}.probe alli
2
9
V(out)
 
5
V(out)
 
